%mem=64mb
%chk=LiuKun2
#p freq=noraman hf/sto-3g scf=maxcycle=999 opt iop(1/8=5)
 
T1
 
0 1
 H                  0.00000000    0.00000000    0.00000000
 N                  1.00641026    0.00000000    0.00000000
 C                  1.47292025    1.27252195    0.00000000
 O                  2.57218497    1.64849416    0.00000000

 
