%mem=64mb
%chk=LiuKun1
#p freq=noraman hf/sto-3g scf=maxcycle=999 opt
 
T1
 
0 3
 H                  0.00000000    0.00000000    0.00000000
 N                  1.00641026    0.00000000    0.00000000
 C                  1.47292025    1.27252195    0.00000000
 O                  2.57218497    1.64849416    0.00000000

 
