%mem=1000mb
%chk=LiuKun1.chk
#p sto-3g scf=maxcycle=999 freq=noraman IOP(7/33=1) hf

T1

0 1
H
N                  1            B1
C                  2            B2    1            A1
O                  3            B3    2            A2    1            D1    0

    B1     =     1.056446
    B2     =     1.475163
    B3     =     1.056754
    A1     =     105.246373
    A2     =     118.297427
    D1     =     179.731229


